/*--------------------------------*- C++ -*----------------------------------*\
  =========                 |
  \\      /  F ield         | OpenFOAM: The Open Source CFD Toolbox
   \\    /   O peration     | Website:  https://openfoam.org
    \\  /    A nd           | Version:  dev
     \\/     M anipulation  |
\*---------------------------------------------------------------------------*/
FoamFile
{
    version     2.0;
    format      ascii;
    class       dictionary;
    location    "system";
    object      setFieldsDict;
}
// * * * * * * * * * * * * * * * * * * * * * * * * * * * * * * * * * * * * * //

actions
(
	{
		name 	solidWall;
		type 	faceSet;
		action 	new;
		source	patchToFace;
		sourceInfo
		{
			name "solid";
		}
	}


        {
                name region1_1;
                type faceSet;
                action new;
                source  boxToFace;
                sourceInfo
                {
                        box (0.00255 0.00020 -1) (0.00505 0.00202 1);
                }
        }

        {
                name region1_1;
                type faceSet;
                action subset;
                source  patchToFace;
                sourceInfo
                {
                        name "solid";
                }
        }
    

        {
                name region1_2;
                type faceSet;
                action new;
                source  boxToFace;
                sourceInfo
                {
                        box (0.00255 0.00202 -1) (0.00505 0.00384 1);
                }
        }

        {
                name region1_2;
                type faceSet;
                action subset;
                source  patchToFace;
                sourceInfo
                {
                        name "solid";
                }
        }
    

        {
                name region1_3;
                type faceSet;
                action new;
                source  boxToFace;
                sourceInfo
                {
                        box (0.00255 0.00384 -1) (0.00505 0.00566 1);
                }
        }

        {
                name region1_3;
                type faceSet;
                action subset;
                source  patchToFace;
                sourceInfo
                {
                        name "solid";
                }
        }
    

        {
                name region1_4;
                type faceSet;
                action new;
                source  boxToFace;
                sourceInfo
                {
                        box (0.00255 0.00566 -1) (0.00505 0.00748 1);
                }
        }

        {
                name region1_4;
                type faceSet;
                action subset;
                source  patchToFace;
                sourceInfo
                {
                        name "solid";
                }
        }
    

        {
                name region1_5;
                type faceSet;
                action new;
                source  boxToFace;
                sourceInfo
                {
                        box (0.00255 0.00748 -1) (0.00505 0.00930 1);
                }
        }

        {
                name region1_5;
                type faceSet;
                action subset;
                source  patchToFace;
                sourceInfo
                {
                        name "solid";
                }
        }
    

        {
                name region1_6;
                type faceSet;
                action new;
                source  boxToFace;
                sourceInfo
                {
                        box (0.00255 0.00930 -1) (0.00505 0.01112 1);
                }
        }

        {
                name region1_6;
                type faceSet;
                action subset;
                source  patchToFace;
                sourceInfo
                {
                        name "solid";
                }
        }
    

        {
                name region1_7;
                type faceSet;
                action new;
                source  boxToFace;
                sourceInfo
                {
                        box (0.00255 0.01112 -1) (0.00505 0.01294 1);
                }
        }

        {
                name region1_7;
                type faceSet;
                action subset;
                source  patchToFace;
                sourceInfo
                {
                        name "solid";
                }
        }
    

        {
                name region1_8;
                type faceSet;
                action new;
                source  boxToFace;
                sourceInfo
                {
                        box (0.00255 0.01294 -1) (0.00505 0.01476 1);
                }
        }

        {
                name region1_8;
                type faceSet;
                action subset;
                source  patchToFace;
                sourceInfo
                {
                        name "solid";
                }
        }
    

        {
                name region1_9;
                type faceSet;
                action new;
                source  boxToFace;
                sourceInfo
                {
                        box (0.00255 0.01476 -1) (0.00505 0.01658 1);
                }
        }

        {
                name region1_9;
                type faceSet;
                action subset;
                source  patchToFace;
                sourceInfo
                {
                        name "solid";
                }
        }
    

        {
                name region1_10;
                type faceSet;
                action new;
                source  boxToFace;
                sourceInfo
                {
                        box (0.00255 0.01658 -1) (0.00505 0.01840 1);
                }
        }

        {
                name region1_10;
                type faceSet;
                action subset;
                source  patchToFace;
                sourceInfo
                {
                        name "solid";
                }
        }
    

        {
                name region2_1;
                type faceSet;
                action new;
                source  boxToFace;
                sourceInfo
                {
                        box (0.00505 0.00020 -1) (0.00754 0.00202 1);
                }
        }

        {
                name region2_1;
                type faceSet;
                action subset;
                source  patchToFace;
                sourceInfo
                {
                        name "solid";
                }
        }
    

        {
                name region2_2;
                type faceSet;
                action new;
                source  boxToFace;
                sourceInfo
                {
                        box (0.00505 0.00202 -1) (0.00754 0.00384 1);
                }
        }

        {
                name region2_2;
                type faceSet;
                action subset;
                source  patchToFace;
                sourceInfo
                {
                        name "solid";
                }
        }
    

        {
                name region2_3;
                type faceSet;
                action new;
                source  boxToFace;
                sourceInfo
                {
                        box (0.00505 0.00384 -1) (0.00754 0.00566 1);
                }
        }

        {
                name region2_3;
                type faceSet;
                action subset;
                source  patchToFace;
                sourceInfo
                {
                        name "solid";
                }
        }
    

        {
                name region2_4;
                type faceSet;
                action new;
                source  boxToFace;
                sourceInfo
                {
                        box (0.00505 0.00566 -1) (0.00754 0.00748 1);
                }
        }

        {
                name region2_4;
                type faceSet;
                action subset;
                source  patchToFace;
                sourceInfo
                {
                        name "solid";
                }
        }
    

        {
                name region2_5;
                type faceSet;
                action new;
                source  boxToFace;
                sourceInfo
                {
                        box (0.00505 0.00748 -1) (0.00754 0.00930 1);
                }
        }

        {
                name region2_5;
                type faceSet;
                action subset;
                source  patchToFace;
                sourceInfo
                {
                        name "solid";
                }
        }
    

        {
                name region2_6;
                type faceSet;
                action new;
                source  boxToFace;
                sourceInfo
                {
                        box (0.00505 0.00930 -1) (0.00754 0.01112 1);
                }
        }

        {
                name region2_6;
                type faceSet;
                action subset;
                source  patchToFace;
                sourceInfo
                {
                        name "solid";
                }
        }
    

        {
                name region2_7;
                type faceSet;
                action new;
                source  boxToFace;
                sourceInfo
                {
                        box (0.00505 0.01112 -1) (0.00754 0.01294 1);
                }
        }

        {
                name region2_7;
                type faceSet;
                action subset;
                source  patchToFace;
                sourceInfo
                {
                        name "solid";
                }
        }
    

        {
                name region2_8;
                type faceSet;
                action new;
                source  boxToFace;
                sourceInfo
                {
                        box (0.00505 0.01294 -1) (0.00754 0.01476 1);
                }
        }

        {
                name region2_8;
                type faceSet;
                action subset;
                source  patchToFace;
                sourceInfo
                {
                        name "solid";
                }
        }
    

        {
                name region2_9;
                type faceSet;
                action new;
                source  boxToFace;
                sourceInfo
                {
                        box (0.00505 0.01476 -1) (0.00754 0.01658 1);
                }
        }

        {
                name region2_9;
                type faceSet;
                action subset;
                source  patchToFace;
                sourceInfo
                {
                        name "solid";
                }
        }
    

        {
                name region2_10;
                type faceSet;
                action new;
                source  boxToFace;
                sourceInfo
                {
                        box (0.00505 0.01658 -1) (0.00754 0.01840 1);
                }
        }

        {
                name region2_10;
                type faceSet;
                action subset;
                source  patchToFace;
                sourceInfo
                {
                        name "solid";
                }
        }
    

        {
                name region3_1;
                type faceSet;
                action new;
                source  boxToFace;
                sourceInfo
                {
                        box (0.00754 0.00020 -1) (0.01004 0.00202 1);
                }
        }

        {
                name region3_1;
                type faceSet;
                action subset;
                source  patchToFace;
                sourceInfo
                {
                        name "solid";
                }
        }
    

        {
                name region3_2;
                type faceSet;
                action new;
                source  boxToFace;
                sourceInfo
                {
                        box (0.00754 0.00202 -1) (0.01004 0.00384 1);
                }
        }

        {
                name region3_2;
                type faceSet;
                action subset;
                source  patchToFace;
                sourceInfo
                {
                        name "solid";
                }
        }
    

        {
                name region3_3;
                type faceSet;
                action new;
                source  boxToFace;
                sourceInfo
                {
                        box (0.00754 0.00384 -1) (0.01004 0.00566 1);
                }
        }

        {
                name region3_3;
                type faceSet;
                action subset;
                source  patchToFace;
                sourceInfo
                {
                        name "solid";
                }
        }
    

        {
                name region3_4;
                type faceSet;
                action new;
                source  boxToFace;
                sourceInfo
                {
                        box (0.00754 0.00566 -1) (0.01004 0.00748 1);
                }
        }

        {
                name region3_4;
                type faceSet;
                action subset;
                source  patchToFace;
                sourceInfo
                {
                        name "solid";
                }
        }
    

        {
                name region3_5;
                type faceSet;
                action new;
                source  boxToFace;
                sourceInfo
                {
                        box (0.00754 0.00748 -1) (0.01004 0.00930 1);
                }
        }

        {
                name region3_5;
                type faceSet;
                action subset;
                source  patchToFace;
                sourceInfo
                {
                        name "solid";
                }
        }
    

        {
                name region3_6;
                type faceSet;
                action new;
                source  boxToFace;
                sourceInfo
                {
                        box (0.00754 0.00930 -1) (0.01004 0.01112 1);
                }
        }

        {
                name region3_6;
                type faceSet;
                action subset;
                source  patchToFace;
                sourceInfo
                {
                        name "solid";
                }
        }
    

        {
                name region3_7;
                type faceSet;
                action new;
                source  boxToFace;
                sourceInfo
                {
                        box (0.00754 0.01112 -1) (0.01004 0.01294 1);
                }
        }

        {
                name region3_7;
                type faceSet;
                action subset;
                source  patchToFace;
                sourceInfo
                {
                        name "solid";
                }
        }
    

        {
                name region3_8;
                type faceSet;
                action new;
                source  boxToFace;
                sourceInfo
                {
                        box (0.00754 0.01294 -1) (0.01004 0.01476 1);
                }
        }

        {
                name region3_8;
                type faceSet;
                action subset;
                source  patchToFace;
                sourceInfo
                {
                        name "solid";
                }
        }
    

        {
                name region3_9;
                type faceSet;
                action new;
                source  boxToFace;
                sourceInfo
                {
                        box (0.00754 0.01476 -1) (0.01004 0.01658 1);
                }
        }

        {
                name region3_9;
                type faceSet;
                action subset;
                source  patchToFace;
                sourceInfo
                {
                        name "solid";
                }
        }
    

        {
                name region3_10;
                type faceSet;
                action new;
                source  boxToFace;
                sourceInfo
                {
                        box (0.00754 0.01658 -1) (0.01004 0.01840 1);
                }
        }

        {
                name region3_10;
                type faceSet;
                action subset;
                source  patchToFace;
                sourceInfo
                {
                        name "solid";
                }
        }
    

        {
                name region4_1;
                type faceSet;
                action new;
                source  boxToFace;
                sourceInfo
                {
                        box (0.01004 0.00020 -1) (0.01254 0.00202 1);
                }
        }

        {
                name region4_1;
                type faceSet;
                action subset;
                source  patchToFace;
                sourceInfo
                {
                        name "solid";
                }
        }
    

        {
                name region4_2;
                type faceSet;
                action new;
                source  boxToFace;
                sourceInfo
                {
                        box (0.01004 0.00202 -1) (0.01254 0.00384 1);
                }
        }

        {
                name region4_2;
                type faceSet;
                action subset;
                source  patchToFace;
                sourceInfo
                {
                        name "solid";
                }
        }
    

        {
                name region4_3;
                type faceSet;
                action new;
                source  boxToFace;
                sourceInfo
                {
                        box (0.01004 0.00384 -1) (0.01254 0.00566 1);
                }
        }

        {
                name region4_3;
                type faceSet;
                action subset;
                source  patchToFace;
                sourceInfo
                {
                        name "solid";
                }
        }
    

        {
                name region4_4;
                type faceSet;
                action new;
                source  boxToFace;
                sourceInfo
                {
                        box (0.01004 0.00566 -1) (0.01254 0.00748 1);
                }
        }

        {
                name region4_4;
                type faceSet;
                action subset;
                source  patchToFace;
                sourceInfo
                {
                        name "solid";
                }
        }
    

        {
                name region4_5;
                type faceSet;
                action new;
                source  boxToFace;
                sourceInfo
                {
                        box (0.01004 0.00748 -1) (0.01254 0.00930 1);
                }
        }

        {
                name region4_5;
                type faceSet;
                action subset;
                source  patchToFace;
                sourceInfo
                {
                        name "solid";
                }
        }
    

        {
                name region4_6;
                type faceSet;
                action new;
                source  boxToFace;
                sourceInfo
                {
                        box (0.01004 0.00930 -1) (0.01254 0.01112 1);
                }
        }

        {
                name region4_6;
                type faceSet;
                action subset;
                source  patchToFace;
                sourceInfo
                {
                        name "solid";
                }
        }
    

        {
                name region4_7;
                type faceSet;
                action new;
                source  boxToFace;
                sourceInfo
                {
                        box (0.01004 0.01112 -1) (0.01254 0.01294 1);
                }
        }

        {
                name region4_7;
                type faceSet;
                action subset;
                source  patchToFace;
                sourceInfo
                {
                        name "solid";
                }
        }
    

        {
                name region4_8;
                type faceSet;
                action new;
                source  boxToFace;
                sourceInfo
                {
                        box (0.01004 0.01294 -1) (0.01254 0.01476 1);
                }
        }

        {
                name region4_8;
                type faceSet;
                action subset;
                source  patchToFace;
                sourceInfo
                {
                        name "solid";
                }
        }
    

        {
                name region4_9;
                type faceSet;
                action new;
                source  boxToFace;
                sourceInfo
                {
                        box (0.01004 0.01476 -1) (0.01254 0.01658 1);
                }
        }

        {
                name region4_9;
                type faceSet;
                action subset;
                source  patchToFace;
                sourceInfo
                {
                        name "solid";
                }
        }
    

        {
                name region4_10;
                type faceSet;
                action new;
                source  boxToFace;
                sourceInfo
                {
                        box (0.01004 0.01658 -1) (0.01254 0.01840 1);
                }
        }

        {
                name region4_10;
                type faceSet;
                action subset;
                source  patchToFace;
                sourceInfo
                {
                        name "solid";
                }
        }
    

        {
                name region5_1;
                type faceSet;
                action new;
                source  boxToFace;
                sourceInfo
                {
                        box (0.01254 0.00020 -1) (0.01503 0.00202 1);
                }
        }

        {
                name region5_1;
                type faceSet;
                action subset;
                source  patchToFace;
                sourceInfo
                {
                        name "solid";
                }
        }
    

        {
                name region5_2;
                type faceSet;
                action new;
                source  boxToFace;
                sourceInfo
                {
                        box (0.01254 0.00202 -1) (0.01503 0.00384 1);
                }
        }

        {
                name region5_2;
                type faceSet;
                action subset;
                source  patchToFace;
                sourceInfo
                {
                        name "solid";
                }
        }
    

        {
                name region5_3;
                type faceSet;
                action new;
                source  boxToFace;
                sourceInfo
                {
                        box (0.01254 0.00384 -1) (0.01503 0.00566 1);
                }
        }

        {
                name region5_3;
                type faceSet;
                action subset;
                source  patchToFace;
                sourceInfo
                {
                        name "solid";
                }
        }
    

        {
                name region5_4;
                type faceSet;
                action new;
                source  boxToFace;
                sourceInfo
                {
                        box (0.01254 0.00566 -1) (0.01503 0.00748 1);
                }
        }

        {
                name region5_4;
                type faceSet;
                action subset;
                source  patchToFace;
                sourceInfo
                {
                        name "solid";
                }
        }
    

        {
                name region5_5;
                type faceSet;
                action new;
                source  boxToFace;
                sourceInfo
                {
                        box (0.01254 0.00748 -1) (0.01503 0.00930 1);
                }
        }

        {
                name region5_5;
                type faceSet;
                action subset;
                source  patchToFace;
                sourceInfo
                {
                        name "solid";
                }
        }
    

        {
                name region5_6;
                type faceSet;
                action new;
                source  boxToFace;
                sourceInfo
                {
                        box (0.01254 0.00930 -1) (0.01503 0.01112 1);
                }
        }

        {
                name region5_6;
                type faceSet;
                action subset;
                source  patchToFace;
                sourceInfo
                {
                        name "solid";
                }
        }
    

        {
                name region5_7;
                type faceSet;
                action new;
                source  boxToFace;
                sourceInfo
                {
                        box (0.01254 0.01112 -1) (0.01503 0.01294 1);
                }
        }

        {
                name region5_7;
                type faceSet;
                action subset;
                source  patchToFace;
                sourceInfo
                {
                        name "solid";
                }
        }
    

        {
                name region5_8;
                type faceSet;
                action new;
                source  boxToFace;
                sourceInfo
                {
                        box (0.01254 0.01294 -1) (0.01503 0.01476 1);
                }
        }

        {
                name region5_8;
                type faceSet;
                action subset;
                source  patchToFace;
                sourceInfo
                {
                        name "solid";
                }
        }
    

        {
                name region5_9;
                type faceSet;
                action new;
                source  boxToFace;
                sourceInfo
                {
                        box (0.01254 0.01476 -1) (0.01503 0.01658 1);
                }
        }

        {
                name region5_9;
                type faceSet;
                action subset;
                source  patchToFace;
                sourceInfo
                {
                        name "solid";
                }
        }
    

        {
                name region5_10;
                type faceSet;
                action new;
                source  boxToFace;
                sourceInfo
                {
                        box (0.01254 0.01658 -1) (0.01503 0.01840 1);
                }
        }

        {
                name region5_10;
                type faceSet;
                action subset;
                source  patchToFace;
                sourceInfo
                {
                        name "solid";
                }
        }
    

        {
                name region6_1;
                type faceSet;
                action new;
                source  boxToFace;
                sourceInfo
                {
                        box (0.01503 0.00020 -1) (0.01753 0.00202 1);
                }
        }

        {
                name region6_1;
                type faceSet;
                action subset;
                source  patchToFace;
                sourceInfo
                {
                        name "solid";
                }
        }
    

        {
                name region6_2;
                type faceSet;
                action new;
                source  boxToFace;
                sourceInfo
                {
                        box (0.01503 0.00202 -1) (0.01753 0.00384 1);
                }
        }

        {
                name region6_2;
                type faceSet;
                action subset;
                source  patchToFace;
                sourceInfo
                {
                        name "solid";
                }
        }
    

        {
                name region6_3;
                type faceSet;
                action new;
                source  boxToFace;
                sourceInfo
                {
                        box (0.01503 0.00384 -1) (0.01753 0.00566 1);
                }
        }

        {
                name region6_3;
                type faceSet;
                action subset;
                source  patchToFace;
                sourceInfo
                {
                        name "solid";
                }
        }
    

        {
                name region6_4;
                type faceSet;
                action new;
                source  boxToFace;
                sourceInfo
                {
                        box (0.01503 0.00566 -1) (0.01753 0.00748 1);
                }
        }

        {
                name region6_4;
                type faceSet;
                action subset;
                source  patchToFace;
                sourceInfo
                {
                        name "solid";
                }
        }
    

        {
                name region6_5;
                type faceSet;
                action new;
                source  boxToFace;
                sourceInfo
                {
                        box (0.01503 0.00748 -1) (0.01753 0.00930 1);
                }
        }

        {